McPAT (version 1.0 of Aug, 2013) is computing the target processor...
 
Warning: InstBuffer array structure cannot satisfy latency constraint.
Warning: ReorderBuffer array structure cannot satisfy throughput constraint.
Warning: ReorderBuffer array structure cannot satisfy latency constraint.
Warning: InstBuffer array structure cannot satisfy latency constraint.
Warning: ReorderBuffer array structure cannot satisfy throughput constraint.
Warning: ReorderBuffer array structure cannot satisfy latency constraint.
Warning: InstBuffer array structure cannot satisfy latency constraint.
Warning: ReorderBuffer array structure cannot satisfy throughput constraint.
Warning: ReorderBuffer array structure cannot satisfy latency constraint.
Warning: InstBuffer array structure cannot satisfy latency constraint.
Warning: ReorderBuffer array structure cannot satisfy throughput constraint.
Warning: ReorderBuffer array structure cannot satisfy latency constraint.
Warning: InstBuffer array structure cannot satisfy latency constraint.
Warning: ReorderBuffer array structure cannot satisfy throughput constraint.
Warning: ReorderBuffer array structure cannot satisfy latency constraint.
Warning: InstBuffer array structure cannot satisfy latency constraint.
Warning: ReorderBuffer array structure cannot satisfy throughput constraint.
Warning: ReorderBuffer array structure cannot satisfy latency constraint.
Warning: InstBuffer array structure cannot satisfy latency constraint.
Warning: ReorderBuffer array structure cannot satisfy throughput constraint.
Warning: ReorderBuffer array structure cannot satisfy latency constraint.
Warning: InstBuffer array structure cannot satisfy latency constraint.
Warning: ReorderBuffer array structure cannot satisfy throughput constraint.
Warning: ReorderBuffer array structure cannot satisfy latency constraint.

McPAT (version 1.0 of Aug, 2013) results  (current print level is 5)
*****************************************************************************************
  Technology 45 nm
  Using Long Channel Devices When Appropriate
  Interconnect metal projection= aggressive interconnect technology projection
  Core clock Rate(MHz) 2660

*****************************************************************************************
Processor: 
  Area = 14342.7 mm^2
  Peak Power = 1.67474e+06 W
  Total Leakage = 668.084 W
  Peak Dynamic = 1.67407e+06 W
  Subthreshold Leakage = 622.809 W
  Subthreshold Leakage with power gating = 266.738 W
  Gate Leakage = 45.2757 W
  Runtime Dynamic = 4997.15 W

  Total Cores: 8 cores 
  Device Type= ITRS high performance device type
    Area = 14213.8 mm^2
    Peak Dynamic = 1.67407e+06 W
    Subthreshold Leakage = 611.336 W
    Subthreshold Leakage with power gating = 260.82 W
    Gate Leakage = 45.0629 W
    Runtime Dynamic = 4996.37 W

  Total L2s: 
  Device Type= ITRS high performance device type
    Area = 44.4546 mm^2
    Peak Dynamic = 1.01126 W
    Subthreshold Leakage = 4.03993 W
    Subthreshold Leakage with power gating = 1.8162 W
    Gate Leakage = 0.103688 W
    Runtime Dynamic = 0.348865 W

  Total L3s: 
  Device Type= ITRS high performance device type
    Area = 61.9075 mm^2
    Peak Dynamic = 0.690003 W
    Subthreshold Leakage = 6.80085 W
    Subthreshold Leakage with power gating = 3.32364 W
    Gate Leakage = 0.0484137 W
    Runtime Dynamic = 0.431068 W

  Total NoCs (Network/Bus): 
  Device Type= ITRS high performance device type
    Area = 22.5992 mm^2
    Peak Dynamic = 0 W
    Subthreshold Leakage = 0.632215 W
    Subthreshold Leakage with power gating = 0.23708 W
    Gate Leakage = 0.0606272 W
    Runtime Dynamic = 0 W

*****************************************************************************************
Core:
      Area = 1776.72 mm^2
      Peak Dynamic = 209258 W
      Subthreshold Leakage = 76.417 W
      Subthreshold Leakage with power gating = 32.6025 W
      Gate Leakage = 5.63287 W
      Runtime Dynamic = 610.3 W

      Instruction Fetch Unit:
        Area = 47.2731 mm^2
        Peak Dynamic = 4052.52 W
        Subthreshold Leakage = 2.37932 W
        Subthreshold Leakage with power gating = 0.95452 W
        Gate Leakage = 0.23961 W
        Runtime Dynamic = 6.97019 W

          Instruction Cache:
            Area = 4.86613 mm^2
            Peak Dynamic = 1.45379 W
            Subthreshold Leakage = 0.486629 W
            Subthreshold Leakage with power gating = 0.22691 W
            Gate Leakage = 0.0421203 W
            Runtime Dynamic = 0.253198 W

          Branch Target Buffer:
            Area = 0.64954 mm^2
            Peak Dynamic = 0.177867 W
            Subthreshold Leakage = 0.0811682 W
            Subthreshold Leakage with power gating = 0.0435357 W
            Gate Leakage = 0.00272758 W
            Runtime Dynamic = 0.00460582 W

          Branch Predictor:
            Area = 0.138516 mm^2
            Peak Dynamic = 0.0597838 W
            Subthreshold Leakage = 0.0199703 W
            Subthreshold Leakage with power gating = 0.0103282 W
            Gate Leakage = 0.000757657 W
            Runtime Dynamic = 0.00158488 W

              Global Predictor:
                Area = 0.0435221 mm^2
                Peak Dynamic = 0.0168831 W
                Subthreshold Leakage = 0.00759719 W
                Subthreshold Leakage with power gating = 0.0039236 W
                Gate Leakage = 0.000278362 W
                Runtime Dynamic = 0.000469538 W

              Local Predictor:
              L1_Local Predictor:
                Area = 0.0257064 mm^2
                Peak Dynamic = 0.0142575 W
                Subthreshold Leakage = 0.00384344 W
                Subthreshold Leakage with power gating = 0.00198631 W
                Gate Leakage = 0.000154548 W
                Runtime Dynamic = 0.000406058 W

              L2_Local Predictor:
                Area = 0.0151917 mm^2
                Peak Dynamic = 0.00527447 W
                Subthreshold Leakage = 0.00181347 W
                Subthreshold Leakage with power gating = 0.000957045 W
                Gate Leakage = 8.00196e-05 W
                Runtime Dynamic = 0.000155601 W

              Chooser:
                Area = 0.0435221 mm^2
                Peak Dynamic = 0.0168831 W
                Subthreshold Leakage = 0.00759719 W
                Subthreshold Leakage with power gating = 0.0039236 W
                Gate Leakage = 0.000278362 W
                Runtime Dynamic = 0.000469538 W

              RAS:
                Area = 0.0105732 mm^2
                Peak Dynamic = 0.0117602 W
                Subthreshold Leakage = 0.000932505 W
                Subthreshold Leakage with power gating = 0.000494733 W
                Gate Leakage = 4.63858e-05 W
                Runtime Dynamic = 0.000239748 W

          Instruction Buffer:
            Area = 11.1802 mm^2
            Peak Dynamic = 4028.05 W
            Subthreshold Leakage = 1.03354 W
            Subthreshold Leakage with power gating = 0.389491 W
            Gate Leakage = 0.119458 W
            Runtime Dynamic = 6.6563 W

          Instruction Decoder:
            Area = 29.7278 mm^2
            Peak Dynamic = 21.9846 W
            Subthreshold Leakage = 0.442943 W
            Subthreshold Leakage with power gating = 0.166104 W
            Gate Leakage = 0.0222493 W
            Runtime Dynamic = 0.0544939 W

      Renaming Unit:
        Area = 27.8071 mm^2
        Peak Dynamic = 2556.62 W
        Subthreshold Leakage = 0.87819 W
        Subthreshold Leakage with power gating = 0.437089 W
        Gate Leakage = 0.0906085 W
        Runtime Dynamic = 6.42699 W

          Int Front End RAT:
            Area = 19.3301 mm^2
            Peak Dynamic = 2465.83 W
            Subthreshold Leakage = 0.500294 W
            Subthreshold Leakage with power gating = 0.285168 W
            Gate Leakage = 0.0323898 W
            Runtime Dynamic = 6.09911 W

          FP Front End RAT:
            Area = 0.168486 mm^2
            Peak Dynamic = 78.3725 W
            Subthreshold Leakage = 0.0437281 W
            Subthreshold Leakage with power gating = 0.024925 W
            Gate Leakage = 0.00489731 W
            Runtime Dynamic = 0.289416 W

          Free List:
            Area = 7.5975 mm^2
            Peak Dynamic = 7.41375 W
            Subthreshold Leakage = 0.0190978 W
            Subthreshold Leakage with power gating = 0.00884518 W
            Gate Leakage = 0.00102434 W
            Runtime Dynamic = 0.0384644 W

      Load Store Unit:
        Area = 9.47562 mm^2
        Peak Dynamic = 2.59414 W
        Subthreshold Leakage = 0.886727 W
        Subthreshold Leakage with power gating = 0.394071 W
        Gate Leakage = 0.0841218 W
        Runtime Dynamic = 0.54804 W

          Data Cache:
            Area = 6.84535 mm^2
            Peak Dynamic = 2.00668 W
            Subthreshold Leakage = 0.527675 W
            Subthreshold Leakage with power gating = 0.25085 W
            Gate Leakage = 0.0279261 W
            Runtime Dynamic = 0.400358 W

          LoadQ:
            Area = 0.0836782 mm^2
            Peak Dynamic = 0.024897 W
            Subthreshold Leakage = 0.00941961 W
            Subthreshold Leakage with power gating = 0.00536918 W
            Gate Leakage = 0.00059896 W
            Runtime Dynamic = 0.024897 W

          StoreQ:
            Area = 0.322079 mm^2
            Peak Dynamic = 0.0613918 W
            Subthreshold Leakage = 0.0345621 W
            Subthreshold Leakage with power gating = 0.0197004 W
            Gate Leakage = 0.00329971 W
            Runtime Dynamic = 0.122783 W

      Memory Management Unit:
        Area = 1.10051 mm^2
        Peak Dynamic = 2.83705 W
        Subthreshold Leakage = 0.372016 W
        Subthreshold Leakage with power gating = 0.150611 W
        Gate Leakage = 0.057119 W
        Runtime Dynamic = 0.0425629 W

          Itlb:
            Area = 0.301552 mm^2
            Peak Dynamic = 0.0634548 W
            Subthreshold Leakage = 0.0413758 W
            Subthreshold Leakage with power gating = 0.0235842 W
            Gate Leakage = 0.00393464 W
            Runtime Dynamic = 0.0195875 W

          Dtlb:
            Area = 0.0879726 mm^2
            Peak Dynamic = 0.0217881 W
            Subthreshold Leakage = 0.0155699 W
            Subthreshold Leakage with power gating = 0.00887485 W
            Gate Leakage = 0.00088729 W
            Runtime Dynamic = 0.0229737 W

      Execution Unit:
        Area = 1686.67 mm^2
        Peak Dynamic = 202644 W
        Subthreshold Leakage = 70.0229 W
        Subthreshold Leakage with power gating = 29.962 W
        Gate Leakage = 5.03755 W
        Runtime Dynamic = 596.312 W

          Register Files:
            Area = 111.819 mm^2
            Peak Dynamic = 1.29603 W
            Subthreshold Leakage = 1.55192 W
            Subthreshold Leakage with power gating = 0.587195 W
            Gate Leakage = 0.101689 W
            Runtime Dynamic = 0.250186 W

              Integer RF:
                Area = 74.0344 mm^2
                Peak Dynamic = 0.631647 W
                Subthreshold Leakage = 1.06477 W
                Subthreshold Leakage with power gating = 0.401522 W
                Gate Leakage = 0.0700135 W
                Runtime Dynamic = 0.223643 W

              Floating Point RF:
                Area = 37.7848 mm^2
                Peak Dynamic = 0.664383 W
                Subthreshold Leakage = 0.487147 W
                Subthreshold Leakage with power gating = 0.185673 W
                Gate Leakage = 0.0316755 W
                Runtime Dynamic = 0.0265434 W

          Instruction Scheduler:
            Area = 1561.2 mm^2
            Peak Dynamic = 202642 W
            Subthreshold Leakage = 59.5387 W
            Subthreshold Leakage with power gating = 26.0252 W
            Gate Leakage = 4.31521 W
            Runtime Dynamic = 593.546 W

              Instruction Window:
                Area = 242.241 mm^2
                Peak Dynamic = 491.03 W
                Subthreshold Leakage = 18.7871 W
                Subthreshold Leakage with power gating = 10.7075 W
                Gate Leakage = 1.23925 W
                Runtime Dynamic = 1.57252 W

              FP Instruction Window:
                Area = 0.328073 mm^2
                Peak Dynamic = 2.30959 W
                Subthreshold Leakage = 0.0225127 W
                Subthreshold Leakage with power gating = 0.0116864 W
                Gate Leakage = 0.00181534 W
                Runtime Dynamic = 0.105871 W

              ROB:
                Area = 1318.63 mm^2
                Peak Dynamic = 202149 W
                Subthreshold Leakage = 40.7291 W
                Subthreshold Leakage with power gating = 15.306 W
                Gate Leakage = 3.07414 W
                Runtime Dynamic = 591.868 W

          Integer ALUs (Count: 96 ):
            Area = 7.53393 mm^2
            Peak Dynamic = 0.0562906 W
            Subthreshold Leakage = 6.43552 W
            Subthreshold Leakage with power gating = 2.41332 W
            Gate Leakage = 0.424466 W
            Runtime Dynamic = 0.158517 W

          Floating Point Units (FPUs) (Count: 2 ):
            Area = 4.6585 mm^2
            Peak Dynamic = 0.0186868 W
            Subthreshold Leakage = 0.994829 W
            Subthreshold Leakage with power gating = 0.373061 W
            Gate Leakage = 0.0656156 W
            Runtime Dynamic = 0.312253 W

          Complex ALUs (Mul/Div) (Count: 1 ):
            Area = 0.235435 mm^2
            Peak Dynamic = 0.00332247 W
            Subthreshold Leakage = 0.20111 W
            Subthreshold Leakage with power gating = 0.0754163 W
            Gate Leakage = 0.0132646 W
            Runtime Dynamic = 0.205298 W

          Results Broadcast Bus:
            Area Overhead = 0.510923 mm^2
            Peak Dynamic = 0.116508 W
            Subthreshold Leakage = 0.985661 W
            Subthreshold Leakage with power gating = 0.369623 W
            Gate Leakage = 0.0650109 W
            Runtime Dynamic = 1.8396 W

*****************************************************************************************
Core:
      Area = 1776.72 mm^2
      Peak Dynamic = 209259 W
      Subthreshold Leakage = 76.417 W
      Subthreshold Leakage with power gating = 32.6025 W
      Gate Leakage = 5.63287 W
      Runtime Dynamic = 694.028 W

      Instruction Fetch Unit:
        Area = 47.2731 mm^2
        Peak Dynamic = 4052.83 W
        Subthreshold Leakage = 2.37932 W
        Subthreshold Leakage with power gating = 0.95452 W
        Gate Leakage = 0.23961 W
        Runtime Dynamic = 7.92376 W

          Instruction Cache:
            Area = 4.86613 mm^2
            Peak Dynamic = 1.65052 W
            Subthreshold Leakage = 0.486629 W
            Subthreshold Leakage with power gating = 0.22691 W
            Gate Leakage = 0.0421203 W
            Runtime Dynamic = 0.297619 W

          Branch Target Buffer:
            Area = 0.64954 mm^2
            Peak Dynamic = 0.177867 W
            Subthreshold Leakage = 0.0811682 W
            Subthreshold Leakage with power gating = 0.0435357 W
            Gate Leakage = 0.00272758 W
            Runtime Dynamic = 0.00536969 W

          Branch Predictor:
            Area = 0.138516 mm^2
            Peak Dynamic = 0.0597838 W
            Subthreshold Leakage = 0.0199703 W
            Subthreshold Leakage with power gating = 0.0103282 W
            Gate Leakage = 0.000757657 W
            Runtime Dynamic = 0.00183994 W

              Global Predictor:
                Area = 0.0435221 mm^2
                Peak Dynamic = 0.0168831 W
                Subthreshold Leakage = 0.00759719 W
                Subthreshold Leakage with power gating = 0.0039236 W
                Gate Leakage = 0.000278362 W
                Runtime Dynamic = 0.00054726 W

              Local Predictor:
              L1_Local Predictor:
                Area = 0.0257064 mm^2
                Peak Dynamic = 0.0142575 W
                Subthreshold Leakage = 0.00384344 W
                Subthreshold Leakage with power gating = 0.00198631 W
                Gate Leakage = 0.000154548 W
                Runtime Dynamic = 0.000473231 W

              L2_Local Predictor:
                Area = 0.0151917 mm^2
                Peak Dynamic = 0.00527447 W
                Subthreshold Leakage = 0.00181347 W
                Subthreshold Leakage with power gating = 0.000957045 W
                Gate Leakage = 8.00196e-05 W
                Runtime Dynamic = 0.000181319 W

              Chooser:
                Area = 0.0435221 mm^2
                Peak Dynamic = 0.0168831 W
                Subthreshold Leakage = 0.00759719 W
                Subthreshold Leakage with power gating = 0.0039236 W
                Gate Leakage = 0.000278362 W
                Runtime Dynamic = 0.00054726 W

              RAS:
                Area = 0.0105732 mm^2
                Peak Dynamic = 0.0117602 W
                Subthreshold Leakage = 0.000932505 W
                Subthreshold Leakage with power gating = 0.000494733 W
                Gate Leakage = 4.63858e-05 W
                Runtime Dynamic = 0.000272192 W

          Instruction Buffer:
            Area = 11.1802 mm^2
            Peak Dynamic = 4028.05 W
            Subthreshold Leakage = 1.03354 W
            Subthreshold Leakage with power gating = 0.389491 W
            Gate Leakage = 0.119458 W
            Runtime Dynamic = 7.55706 W

          Instruction Decoder:
            Area = 29.7278 mm^2
            Peak Dynamic = 21.9846 W
            Subthreshold Leakage = 0.442943 W
            Subthreshold Leakage with power gating = 0.166104 W
            Gate Leakage = 0.0222493 W
            Runtime Dynamic = 0.0618682 W

      Renaming Unit:
        Area = 27.8071 mm^2
        Peak Dynamic = 2556.62 W
        Subthreshold Leakage = 0.87819 W
        Subthreshold Leakage with power gating = 0.437089 W
        Gate Leakage = 0.0906085 W
        Runtime Dynamic = 7.2574 W

          Int Front End RAT:
            Area = 19.3301 mm^2
            Peak Dynamic = 2465.83 W
            Subthreshold Leakage = 0.500294 W
            Subthreshold Leakage with power gating = 0.285168 W
            Gate Leakage = 0.0323898 W
            Runtime Dynamic = 6.92454 W

          FP Front End RAT:
            Area = 0.168486 mm^2
            Peak Dynamic = 78.3725 W
            Subthreshold Leakage = 0.0437281 W
            Subthreshold Leakage with power gating = 0.024925 W
            Gate Leakage = 0.00489731 W
            Runtime Dynamic = 0.289416 W

          Free List:
            Area = 7.5975 mm^2
            Peak Dynamic = 7.41375 W
            Subthreshold Leakage = 0.0190978 W
            Subthreshold Leakage with power gating = 0.00884518 W
            Gate Leakage = 0.00102434 W
            Runtime Dynamic = 0.043438 W

      Load Store Unit:
        Area = 9.47562 mm^2
        Peak Dynamic = 2.76867 W
        Subthreshold Leakage = 0.886727 W
        Subthreshold Leakage with power gating = 0.394071 W
        Gate Leakage = 0.0841218 W
        Runtime Dynamic = 0.599223 W

          Data Cache:
            Area = 6.84535 mm^2
            Peak Dynamic = 2.10565 W
            Subthreshold Leakage = 0.527675 W
            Subthreshold Leakage with power gating = 0.25085 W
            Gate Leakage = 0.0279261 W
            Runtime Dynamic = 0.432548 W

          LoadQ:
            Area = 0.0836782 mm^2
            Peak Dynamic = 0.028099 W
            Subthreshold Leakage = 0.00941961 W
            Subthreshold Leakage with power gating = 0.00536918 W
            Gate Leakage = 0.00059896 W
            Runtime Dynamic = 0.0280989 W

          StoreQ:
            Area = 0.322079 mm^2
            Peak Dynamic = 0.0692873 W
            Subthreshold Leakage = 0.0345621 W
            Subthreshold Leakage with power gating = 0.0197004 W
            Gate Leakage = 0.00329971 W
            Runtime Dynamic = 0.138574 W

      Memory Management Unit:
        Area = 1.10051 mm^2
        Peak Dynamic = 2.88067 W
        Subthreshold Leakage = 0.372016 W
        Subthreshold Leakage with power gating = 0.150611 W
        Gate Leakage = 0.057119 W
        Runtime Dynamic = 0.0487444 W

          Itlb:
            Area = 0.301552 mm^2
            Peak Dynamic = 0.0720414 W
            Subthreshold Leakage = 0.0413758 W
            Subthreshold Leakage with power gating = 0.0235842 W
            Gate Leakage = 0.00393464 W
            Runtime Dynamic = 0.0230237 W

          Dtlb:
            Area = 0.0879726 mm^2
            Peak Dynamic = 0.0245903 W
            Subthreshold Leakage = 0.0155699 W
            Subthreshold Leakage with power gating = 0.00887485 W
            Gate Leakage = 0.00088729 W
            Runtime Dynamic = 0.025719 W

      Execution Unit:
        Area = 1686.67 mm^2
        Peak Dynamic = 202644 W
        Subthreshold Leakage = 70.0229 W
        Subthreshold Leakage with power gating = 29.962 W
        Gate Leakage = 5.03755 W
        Runtime Dynamic = 678.199 W

          Register Files:
            Area = 111.819 mm^2
            Peak Dynamic = 1.32554 W
            Subthreshold Leakage = 1.55192 W
            Subthreshold Leakage with power gating = 0.587195 W
            Gate Leakage = 0.101689 W
            Runtime Dynamic = 0.284043 W

              Integer RF:
                Area = 74.0344 mm^2
                Peak Dynamic = 0.661156 W
                Subthreshold Leakage = 1.06477 W
                Subthreshold Leakage with power gating = 0.401522 W
                Gate Leakage = 0.0700135 W
                Runtime Dynamic = 0.253907 W

              Floating Point RF:
                Area = 37.7848 mm^2
                Peak Dynamic = 0.664383 W
                Subthreshold Leakage = 0.487147 W
                Subthreshold Leakage with power gating = 0.185673 W
                Gate Leakage = 0.0316755 W
                Runtime Dynamic = 0.0301354 W

          Instruction Scheduler:
            Area = 1561.2 mm^2
            Peak Dynamic = 202642 W
            Subthreshold Leakage = 59.5387 W
            Subthreshold Leakage with power gating = 26.0252 W
            Gate Leakage = 4.31521 W
            Runtime Dynamic = 675.146 W

              Instruction Window:
                Area = 242.241 mm^2
                Peak Dynamic = 491.03 W
                Subthreshold Leakage = 18.7871 W
                Subthreshold Leakage with power gating = 10.7075 W
                Gate Leakage = 1.23925 W
                Runtime Dynamic = 1.78532 W

              FP Instruction Window:
                Area = 0.328073 mm^2
                Peak Dynamic = 2.30959 W
                Subthreshold Leakage = 0.0225127 W
                Subthreshold Leakage with power gating = 0.0116864 W
                Gate Leakage = 0.00181534 W
                Runtime Dynamic = 0.120198 W

              ROB:
                Area = 1318.63 mm^2
                Peak Dynamic = 202149 W
                Subthreshold Leakage = 40.7291 W
                Subthreshold Leakage with power gating = 15.306 W
                Gate Leakage = 3.07414 W
                Runtime Dynamic = 673.241 W

          Integer ALUs (Count: 96 ):
            Area = 7.53393 mm^2
            Peak Dynamic = 0.0642556 W
            Subthreshold Leakage = 6.43552 W
            Subthreshold Leakage with power gating = 2.41332 W
            Gate Leakage = 0.424466 W
            Runtime Dynamic = 0.166482 W

          Floating Point Units (FPUs) (Count: 2 ):
            Area = 4.6585 mm^2
            Peak Dynamic = 0.0186868 W
            Subthreshold Leakage = 0.994829 W
            Subthreshold Leakage with power gating = 0.373061 W
            Gate Leakage = 0.0656156 W
            Runtime Dynamic = 0.312253 W

          Complex ALUs (Mul/Div) (Count: 1 ):
            Area = 0.235435 mm^2
            Peak Dynamic = 0.00332247 W
            Subthreshold Leakage = 0.20111 W
            Subthreshold Leakage with power gating = 0.0754163 W
            Gate Leakage = 0.0132646 W
            Runtime Dynamic = 0.205298 W

          Results Broadcast Bus:
            Area Overhead = 0.510923 mm^2
            Peak Dynamic = 0.121591 W
            Subthreshold Leakage = 0.985661 W
            Subthreshold Leakage with power gating = 0.369623 W
            Gate Leakage = 0.0650109 W
            Runtime Dynamic = 2.08424 W

*****************************************************************************************
Core:
      Area = 1776.72 mm^2
      Peak Dynamic = 209258 W
      Subthreshold Leakage = 76.417 W
      Subthreshold Leakage with power gating = 32.6025 W
      Gate Leakage = 5.63287 W
      Runtime Dynamic = 507.194 W

      Instruction Fetch Unit:
        Area = 47.2731 mm^2
        Peak Dynamic = 4052.15 W
        Subthreshold Leakage = 2.37932 W
        Subthreshold Leakage with power gating = 0.95452 W
        Gate Leakage = 0.23961 W
        Runtime Dynamic = 5.79629 W

          Instruction Cache:
            Area = 4.86613 mm^2
            Peak Dynamic = 1.21159 W
            Subthreshold Leakage = 0.486629 W
            Subthreshold Leakage with power gating = 0.22691 W
            Gate Leakage = 0.0421203 W
            Runtime Dynamic = 0.198546 W

          Branch Target Buffer:
            Area = 0.64954 mm^2
            Peak Dynamic = 0.177867 W
            Subthreshold Leakage = 0.0811682 W
            Subthreshold Leakage with power gating = 0.0435357 W
            Gate Leakage = 0.00272758 W
            Runtime Dynamic = 0.00366587 W

          Branch Predictor:
            Area = 0.138516 mm^2
            Peak Dynamic = 0.0597838 W
            Subthreshold Leakage = 0.0199703 W
            Subthreshold Leakage with power gating = 0.0103282 W
            Gate Leakage = 0.000757657 W
            Runtime Dynamic = 0.00127047 W

              Global Predictor:
                Area = 0.0435221 mm^2
                Peak Dynamic = 0.0168831 W
                Subthreshold Leakage = 0.00759719 W
                Subthreshold Leakage with power gating = 0.0039236 W
                Gate Leakage = 0.000278362 W
                Runtime Dynamic = 0.000373727 W

              Local Predictor:
              L1_Local Predictor:
                Area = 0.0257064 mm^2
                Peak Dynamic = 0.0142575 W
                Subthreshold Leakage = 0.00384344 W
                Subthreshold Leakage with power gating = 0.00198631 W
                Gate Leakage = 0.000154548 W
                Runtime Dynamic = 0.000323204 W

              L2_Local Predictor:
                Area = 0.0151917 mm^2
                Peak Dynamic = 0.00527447 W
                Subthreshold Leakage = 0.00181347 W
                Subthreshold Leakage with power gating = 0.000957045 W
                Gate Leakage = 8.00196e-05 W
                Runtime Dynamic = 0.000123853 W

              Chooser:
                Area = 0.0435221 mm^2
                Peak Dynamic = 0.0168831 W
                Subthreshold Leakage = 0.00759719 W
                Subthreshold Leakage with power gating = 0.0039236 W
                Gate Leakage = 0.000278362 W
                Runtime Dynamic = 0.000373727 W

              RAS:
                Area = 0.0105732 mm^2
                Peak Dynamic = 0.0117602 W
                Subthreshold Leakage = 0.000932505 W
                Subthreshold Leakage with power gating = 0.000494733 W
                Gate Leakage = 4.63858e-05 W
                Runtime Dynamic = 0.000199809 W

          Instruction Buffer:
            Area = 11.1802 mm^2
            Peak Dynamic = 4028.05 W
            Subthreshold Leakage = 1.03354 W
            Subthreshold Leakage with power gating = 0.389491 W
            Gate Leakage = 0.119458 W
            Runtime Dynamic = 5.54739 W

          Instruction Decoder:
            Area = 29.7278 mm^2
            Peak Dynamic = 21.9846 W
            Subthreshold Leakage = 0.442943 W
            Subthreshold Leakage with power gating = 0.166104 W
            Gate Leakage = 0.0222493 W
            Runtime Dynamic = 0.0454154 W

      Renaming Unit:
        Area = 27.8071 mm^2
        Peak Dynamic = 2556.62 W
        Subthreshold Leakage = 0.87819 W
        Subthreshold Leakage with power gating = 0.437089 W
        Gate Leakage = 0.0906085 W
        Runtime Dynamic = 5.40467 W

          Int Front End RAT:
            Area = 19.3301 mm^2
            Peak Dynamic = 2465.83 W
            Subthreshold Leakage = 0.500294 W
            Subthreshold Leakage with power gating = 0.285168 W
            Gate Leakage = 0.0323898 W
            Runtime Dynamic = 5.08291 W

          FP Front End RAT:
            Area = 0.168486 mm^2
            Peak Dynamic = 78.3725 W
            Subthreshold Leakage = 0.0437281 W
            Subthreshold Leakage with power gating = 0.024925 W
            Gate Leakage = 0.00489731 W
            Runtime Dynamic = 0.289416 W

          Free List:
            Area = 7.5975 mm^2
            Peak Dynamic = 7.41375 W
            Subthreshold Leakage = 0.0190978 W
            Subthreshold Leakage with power gating = 0.00884518 W
            Gate Leakage = 0.00102434 W
            Runtime Dynamic = 0.0323415 W

      Load Store Unit:
        Area = 9.47562 mm^2
        Peak Dynamic = 2.37938 W
        Subthreshold Leakage = 0.886727 W
        Subthreshold Leakage with power gating = 0.394071 W
        Gate Leakage = 0.0841218 W
        Runtime Dynamic = 0.448163 W

          Data Cache:
            Area = 6.84535 mm^2
            Peak Dynamic = 1.88488 W
            Subthreshold Leakage = 0.527675 W
            Subthreshold Leakage with power gating = 0.25085 W
            Gate Leakage = 0.0279261 W
            Runtime Dynamic = 0.323854 W

          LoadQ:
            Area = 0.0836782 mm^2
            Peak Dynamic = 0.0209567 W
            Subthreshold Leakage = 0.00941961 W
            Subthreshold Leakage with power gating = 0.00536918 W
            Gate Leakage = 0.00059896 W
            Runtime Dynamic = 0.0209566 W

          StoreQ:
            Area = 0.322079 mm^2
            Peak Dynamic = 0.0516756 W
            Subthreshold Leakage = 0.0345621 W
            Subthreshold Leakage with power gating = 0.0197004 W
            Gate Leakage = 0.00329971 W
            Runtime Dynamic = 0.103351 W

      Memory Management Unit:
        Area = 1.10051 mm^2
        Peak Dynamic = 2.78337 W
        Subthreshold Leakage = 0.372016 W
        Subthreshold Leakage with power gating = 0.150611 W
        Gate Leakage = 0.057119 W
        Runtime Dynamic = 0.034507 W

          Itlb:
            Area = 0.301552 mm^2
            Peak Dynamic = 0.0528833 W
            Subthreshold Leakage = 0.0413758 W
            Subthreshold Leakage with power gating = 0.0235842 W
            Gate Leakage = 0.00393464 W
            Runtime Dynamic = 0.0153599 W

          Dtlb:
            Area = 0.0879726 mm^2
            Peak Dynamic = 0.0183399 W
            Subthreshold Leakage = 0.0155699 W
            Subthreshold Leakage with power gating = 0.00887485 W
            Gate Leakage = 0.00088729 W
            Runtime Dynamic = 0.0191453 W

      Execution Unit:
        Area = 1686.67 mm^2
        Peak Dynamic = 202644 W
        Subthreshold Leakage = 70.0229 W
        Subthreshold Leakage with power gating = 29.962 W
        Gate Leakage = 5.03755 W
        Runtime Dynamic = 495.51 W

          Register Files:
            Area = 111.819 mm^2
            Peak Dynamic = 1.25951 W
            Subthreshold Leakage = 1.55192 W
            Subthreshold Leakage with power gating = 0.587195 W
            Gate Leakage = 0.101689 W
            Runtime Dynamic = 0.208506 W

              Integer RF:
                Area = 74.0344 mm^2
                Peak Dynamic = 0.595124 W
                Subthreshold Leakage = 1.06477 W
                Subthreshold Leakage with power gating = 0.401522 W
                Gate Leakage = 0.0700135 W
                Runtime Dynamic = 0.186385 W

              Floating Point RF:
                Area = 37.7848 mm^2
                Peak Dynamic = 0.664383 W
                Subthreshold Leakage = 0.487147 W
                Subthreshold Leakage with power gating = 0.185673 W
                Gate Leakage = 0.0316755 W
                Runtime Dynamic = 0.0221215 W

          Instruction Scheduler:
            Area = 1561.2 mm^2
            Peak Dynamic = 202642 W
            Subthreshold Leakage = 59.5387 W
            Subthreshold Leakage with power gating = 26.0252 W
            Gate Leakage = 4.31521 W
            Runtime Dynamic = 493.097 W

              Instruction Window:
                Area = 242.241 mm^2
                Peak Dynamic = 491.03 W
                Subthreshold Leakage = 18.7871 W
                Subthreshold Leakage with power gating = 10.7075 W
                Gate Leakage = 1.23925 W
                Runtime Dynamic = 1.31055 W

              FP Instruction Window:
                Area = 0.328073 mm^2
                Peak Dynamic = 2.30959 W
                Subthreshold Leakage = 0.0225127 W
                Subthreshold Leakage with power gating = 0.0116864 W
                Gate Leakage = 0.00181534 W
                Runtime Dynamic = 0.0882334 W

              ROB:
                Area = 1318.63 mm^2
                Peak Dynamic = 202149 W
                Subthreshold Leakage = 40.7291 W
                Subthreshold Leakage with power gating = 15.306 W
                Gate Leakage = 3.07414 W
                Runtime Dynamic = 491.698 W

          Integer ALUs (Count: 96 ):
            Area = 7.53393 mm^2
            Peak Dynamic = 0.0464326 W
            Subthreshold Leakage = 6.43552 W
            Subthreshold Leakage with power gating = 2.41332 W
            Gate Leakage = 0.424466 W
            Runtime Dynamic = 0.148712 W

          Floating Point Units (FPUs) (Count: 2 ):
            Area = 4.6585 mm^2
            Peak Dynamic = 0.0186868 W
            Subthreshold Leakage = 0.994829 W
            Subthreshold Leakage with power gating = 0.373061 W
            Gate Leakage = 0.0656156 W
            Runtime Dynamic = 0.312253 W

          Complex ALUs (Mul/Div) (Count: 1 ):
            Area = 0.235435 mm^2
            Peak Dynamic = 0.00332247 W
            Subthreshold Leakage = 0.20111 W
            Subthreshold Leakage with power gating = 0.0754163 W
            Gate Leakage = 0.0132646 W
            Runtime Dynamic = 0.205298 W

          Results Broadcast Bus:
            Area Overhead = 0.510923 mm^2
            Peak Dynamic = 0.110218 W
            Subthreshold Leakage = 0.985661 W
            Subthreshold Leakage with power gating = 0.369623 W
            Gate Leakage = 0.0650109 W
            Runtime Dynamic = 1.53843 W

*****************************************************************************************
Core:
      Area = 1776.72 mm^2
      Peak Dynamic = 209259 W
      Subthreshold Leakage = 76.417 W
      Subthreshold Leakage with power gating = 32.6025 W
      Gate Leakage = 5.63287 W
      Runtime Dynamic = 696.382 W

      Instruction Fetch Unit:
        Area = 47.2731 mm^2
        Peak Dynamic = 4052.84 W
        Subthreshold Leakage = 2.37932 W
        Subthreshold Leakage with power gating = 0.95452 W
        Gate Leakage = 0.23961 W
        Runtime Dynamic = 7.95056 W

          Instruction Cache:
            Area = 4.86613 mm^2
            Peak Dynamic = 1.65604 W
            Subthreshold Leakage = 0.486629 W
            Subthreshold Leakage with power gating = 0.22691 W
            Gate Leakage = 0.0421203 W
            Runtime Dynamic = 0.298878 W

          Branch Target Buffer:
            Area = 0.64954 mm^2
            Peak Dynamic = 0.177867 W
            Subthreshold Leakage = 0.0811682 W
            Subthreshold Leakage with power gating = 0.0435357 W
            Gate Leakage = 0.00272758 W
            Runtime Dynamic = 0.00539121 W

          Branch Predictor:
            Area = 0.138516 mm^2
            Peak Dynamic = 0.0597838 W
            Subthreshold Leakage = 0.0199703 W
            Subthreshold Leakage with power gating = 0.0103282 W
            Gate Leakage = 0.000757657 W
            Runtime Dynamic = 0.00184758 W

              Global Predictor:
                Area = 0.0435221 mm^2
                Peak Dynamic = 0.0168831 W
                Subthreshold Leakage = 0.00759719 W
                Subthreshold Leakage with power gating = 0.0039236 W
                Gate Leakage = 0.000278362 W
                Runtime Dynamic = 0.000549593 W

              Local Predictor:
              L1_Local Predictor:
                Area = 0.0257064 mm^2
                Peak Dynamic = 0.0142575 W
                Subthreshold Leakage = 0.00384344 W
                Subthreshold Leakage with power gating = 0.00198631 W
                Gate Leakage = 0.000154548 W
                Runtime Dynamic = 0.000475287 W

              L2_Local Predictor:
                Area = 0.0151917 mm^2
                Peak Dynamic = 0.00527447 W
                Subthreshold Leakage = 0.00181347 W
                Subthreshold Leakage with power gating = 0.000957045 W
                Gate Leakage = 8.00196e-05 W
                Runtime Dynamic = 0.000182128 W

              Chooser:
                Area = 0.0435221 mm^2
                Peak Dynamic = 0.0168831 W
                Subthreshold Leakage = 0.00759719 W
                Subthreshold Leakage with power gating = 0.0039236 W
                Gate Leakage = 0.000278362 W
                Runtime Dynamic = 0.000549593 W

              RAS:
                Area = 0.0105732 mm^2
                Peak Dynamic = 0.0117602 W
                Subthreshold Leakage = 0.000932505 W
                Subthreshold Leakage with power gating = 0.000494733 W
                Gate Leakage = 4.63858e-05 W
                Runtime Dynamic = 0.000273106 W

          Instruction Buffer:
            Area = 11.1802 mm^2
            Peak Dynamic = 4028.05 W
            Subthreshold Leakage = 1.03354 W
            Subthreshold Leakage with power gating = 0.389491 W
            Gate Leakage = 0.119458 W
            Runtime Dynamic = 7.58237 W

          Instruction Decoder:
            Area = 29.7278 mm^2
            Peak Dynamic = 21.9846 W
            Subthreshold Leakage = 0.442943 W
            Subthreshold Leakage with power gating = 0.166104 W
            Gate Leakage = 0.0222493 W
            Runtime Dynamic = 0.0620754 W

      Renaming Unit:
        Area = 27.8071 mm^2
        Peak Dynamic = 2556.62 W
        Subthreshold Leakage = 0.87819 W
        Subthreshold Leakage with power gating = 0.437089 W
        Gate Leakage = 0.0906085 W
        Runtime Dynamic = 7.28073 W

          Int Front End RAT:
            Area = 19.3301 mm^2
            Peak Dynamic = 2465.83 W
            Subthreshold Leakage = 0.500294 W
            Subthreshold Leakage with power gating = 0.285168 W
            Gate Leakage = 0.0323898 W
            Runtime Dynamic = 6.94773 W

          FP Front End RAT:
            Area = 0.168486 mm^2
            Peak Dynamic = 78.3725 W
            Subthreshold Leakage = 0.0437281 W
            Subthreshold Leakage with power gating = 0.024925 W
            Gate Leakage = 0.00489731 W
            Runtime Dynamic = 0.289416 W

          Free List:
            Area = 7.5975 mm^2
            Peak Dynamic = 7.41375 W
            Subthreshold Leakage = 0.0190978 W
            Subthreshold Leakage with power gating = 0.00884518 W
            Gate Leakage = 0.00102434 W
            Runtime Dynamic = 0.0435778 W

      Load Store Unit:
        Area = 9.47562 mm^2
        Peak Dynamic = 2.77359 W
        Subthreshold Leakage = 0.886727 W
        Subthreshold Leakage with power gating = 0.394071 W
        Gate Leakage = 0.0841218 W
        Runtime Dynamic = 0.601593 W

          Data Cache:
            Area = 6.84535 mm^2
            Peak Dynamic = 2.10844 W
            Subthreshold Leakage = 0.527675 W
            Subthreshold Leakage with power gating = 0.25085 W
            Gate Leakage = 0.0279261 W
            Runtime Dynamic = 0.434383 W

          LoadQ:
            Area = 0.0836782 mm^2
            Peak Dynamic = 0.0281892 W
            Subthreshold Leakage = 0.00941961 W
            Subthreshold Leakage with power gating = 0.00536918 W
            Gate Leakage = 0.00059896 W
            Runtime Dynamic = 0.0281891 W

          StoreQ:
            Area = 0.322079 mm^2
            Peak Dynamic = 0.0695097 W
            Subthreshold Leakage = 0.0345621 W
            Subthreshold Leakage with power gating = 0.0197004 W
            Gate Leakage = 0.00329971 W
            Runtime Dynamic = 0.139019 W

      Memory Management Unit:
        Area = 1.10051 mm^2
        Peak Dynamic = 2.88189 W
        Subthreshold Leakage = 0.372016 W
        Subthreshold Leakage with power gating = 0.150611 W
        Gate Leakage = 0.057119 W
        Runtime Dynamic = 0.0489426 W

          Itlb:
            Area = 0.301552 mm^2
            Peak Dynamic = 0.0722826 W
            Subthreshold Leakage = 0.0413758 W
            Subthreshold Leakage with power gating = 0.0235842 W
            Gate Leakage = 0.00393464 W
            Runtime Dynamic = 0.023121 W

          Dtlb:
            Area = 0.0879726 mm^2
            Peak Dynamic = 0.0246692 W
            Subthreshold Leakage = 0.0155699 W
            Subthreshold Leakage with power gating = 0.00887485 W
            Gate Leakage = 0.00088729 W
            Runtime Dynamic = 0.0258199 W

      Execution Unit:
        Area = 1686.67 mm^2
        Peak Dynamic = 202644 W
        Subthreshold Leakage = 70.0229 W
        Subthreshold Leakage with power gating = 29.962 W
        Gate Leakage = 5.03755 W
        Runtime Dynamic = 680.5 W

          Register Files:
            Area = 111.819 mm^2
            Peak Dynamic = 1.32633 W
            Subthreshold Leakage = 1.55192 W
            Subthreshold Leakage with power gating = 0.587195 W
            Gate Leakage = 0.101689 W
            Runtime Dynamic = 0.284994 W

              Integer RF:
                Area = 74.0344 mm^2
                Peak Dynamic = 0.66195 W
                Subthreshold Leakage = 1.06477 W
                Subthreshold Leakage with power gating = 0.401522 W
                Gate Leakage = 0.0700135 W
                Runtime Dynamic = 0.254757 W

              Floating Point RF:
                Area = 37.7848 mm^2
                Peak Dynamic = 0.664383 W
                Subthreshold Leakage = 0.487147 W
                Subthreshold Leakage with power gating = 0.185673 W
                Gate Leakage = 0.0316755 W
                Runtime Dynamic = 0.0302363 W

          Instruction Scheduler:
            Area = 1561.2 mm^2
            Peak Dynamic = 202642 W
            Subthreshold Leakage = 59.5387 W
            Subthreshold Leakage with power gating = 26.0252 W
            Gate Leakage = 4.31521 W
            Runtime Dynamic = 677.44 W

              Instruction Window:
                Area = 242.241 mm^2
                Peak Dynamic = 491.03 W
                Subthreshold Leakage = 18.7871 W
                Subthreshold Leakage with power gating = 10.7075 W
                Gate Leakage = 1.23925 W
                Runtime Dynamic = 1.7913 W

              FP Instruction Window:
                Area = 0.328073 mm^2
                Peak Dynamic = 2.30959 W
                Subthreshold Leakage = 0.0225127 W
                Subthreshold Leakage with power gating = 0.0116864 W
                Gate Leakage = 0.00181534 W
                Runtime Dynamic = 0.1206 W

              ROB:
                Area = 1318.63 mm^2
                Peak Dynamic = 202149 W
                Subthreshold Leakage = 40.7291 W
                Subthreshold Leakage with power gating = 15.306 W
                Gate Leakage = 3.07414 W
                Runtime Dynamic = 675.528 W

          Integer ALUs (Count: 96 ):
            Area = 7.53393 mm^2
            Peak Dynamic = 0.0644699 W
            Subthreshold Leakage = 6.43552 W
            Subthreshold Leakage with power gating = 2.41332 W
            Gate Leakage = 0.424466 W
            Runtime Dynamic = 0.166705 W

          Floating Point Units (FPUs) (Count: 2 ):
            Area = 4.6585 mm^2
            Peak Dynamic = 0.0186868 W
            Subthreshold Leakage = 0.994829 W
            Subthreshold Leakage with power gating = 0.373061 W
            Gate Leakage = 0.0656156 W
            Runtime Dynamic = 0.312253 W

          Complex ALUs (Mul/Div) (Count: 1 ):
            Area = 0.235435 mm^2
            Peak Dynamic = 0.00332247 W
            Subthreshold Leakage = 0.20111 W
            Subthreshold Leakage with power gating = 0.0754163 W
            Gate Leakage = 0.0132646 W
            Runtime Dynamic = 0.205298 W

          Results Broadcast Bus:
            Area Overhead = 0.510923 mm^2
            Peak Dynamic = 0.121727 W
            Subthreshold Leakage = 0.985661 W
            Subthreshold Leakage with power gating = 0.369623 W
            Gate Leakage = 0.0650109 W
            Runtime Dynamic = 2.09111 W

*****************************************************************************************
Core:
      Area = 1776.72 mm^2
      Peak Dynamic = 209259 W
      Subthreshold Leakage = 76.417 W
      Subthreshold Leakage with power gating = 32.6025 W
      Gate Leakage = 5.63287 W
      Runtime Dynamic = 680.503 W

      Instruction Fetch Unit:
        Area = 47.2731 mm^2
        Peak Dynamic = 4052.78 W
        Subthreshold Leakage = 2.37932 W
        Subthreshold Leakage with power gating = 0.95452 W
        Gate Leakage = 0.23961 W
        Runtime Dynamic = 7.76975 W

          Instruction Cache:
            Area = 4.86613 mm^2
            Peak Dynamic = 1.61874 W
            Subthreshold Leakage = 0.486629 W
            Subthreshold Leakage with power gating = 0.22691 W
            Gate Leakage = 0.0421203 W
            Runtime Dynamic = 0.290437 W

          Branch Target Buffer:
            Area = 0.64954 mm^2
            Peak Dynamic = 0.177867 W
            Subthreshold Leakage = 0.0811682 W
            Subthreshold Leakage with power gating = 0.0435357 W
            Gate Leakage = 0.00272758 W
            Runtime Dynamic = 0.00524627 W

          Branch Predictor:
            Area = 0.138516 mm^2
            Peak Dynamic = 0.0597838 W
            Subthreshold Leakage = 0.0199703 W
            Subthreshold Leakage with power gating = 0.0103282 W
            Gate Leakage = 0.000757657 W
            Runtime Dynamic = 0.00179814 W

              Global Predictor:
                Area = 0.0435221 mm^2
                Peak Dynamic = 0.0168831 W
                Subthreshold Leakage = 0.00759719 W
                Subthreshold Leakage with power gating = 0.0039236 W
                Gate Leakage = 0.000278362 W
                Runtime Dynamic = 0.000534515 W

              Local Predictor:
              L1_Local Predictor:
                Area = 0.0257064 mm^2
                Peak Dynamic = 0.0142575 W
                Subthreshold Leakage = 0.00384344 W
                Subthreshold Leakage with power gating = 0.00198631 W
                Gate Leakage = 0.000154548 W
                Runtime Dynamic = 0.000462164 W

              L2_Local Predictor:
                Area = 0.0151917 mm^2
                Peak Dynamic = 0.00527447 W
                Subthreshold Leakage = 0.00181347 W
                Subthreshold Leakage with power gating = 0.000957045 W
                Gate Leakage = 8.00196e-05 W
                Runtime Dynamic = 0.000177053 W

              Chooser:
                Area = 0.0435221 mm^2
                Peak Dynamic = 0.0168831 W
                Subthreshold Leakage = 0.00759719 W
                Subthreshold Leakage with power gating = 0.0039236 W
                Gate Leakage = 0.000278362 W
                Runtime Dynamic = 0.000534515 W

              RAS:
                Area = 0.0105732 mm^2
                Peak Dynamic = 0.0117602 W
                Subthreshold Leakage = 0.000932505 W
                Subthreshold Leakage with power gating = 0.000494733 W
                Gate Leakage = 4.63858e-05 W
                Runtime Dynamic = 0.000266951 W

          Instruction Buffer:
            Area = 11.1802 mm^2
            Peak Dynamic = 4028.05 W
            Subthreshold Leakage = 1.03354 W
            Subthreshold Leakage with power gating = 0.389491 W
            Gate Leakage = 0.119458 W
            Runtime Dynamic = 7.41159 W

          Instruction Decoder:
            Area = 29.7278 mm^2
            Peak Dynamic = 21.9846 W
            Subthreshold Leakage = 0.442943 W
            Subthreshold Leakage with power gating = 0.166104 W
            Gate Leakage = 0.0222493 W
            Runtime Dynamic = 0.0606772 W

      Renaming Unit:
        Area = 27.8071 mm^2
        Peak Dynamic = 2556.62 W
        Subthreshold Leakage = 0.87819 W
        Subthreshold Leakage with power gating = 0.437089 W
        Gate Leakage = 0.0906085 W
        Runtime Dynamic = 7.12329 W

          Int Front End RAT:
            Area = 19.3301 mm^2
            Peak Dynamic = 2465.83 W
            Subthreshold Leakage = 0.500294 W
            Subthreshold Leakage with power gating = 0.285168 W
            Gate Leakage = 0.0323898 W
            Runtime Dynamic = 6.79123 W

          FP Front End RAT:
            Area = 0.168486 mm^2
            Peak Dynamic = 78.3725 W
            Subthreshold Leakage = 0.0437281 W
            Subthreshold Leakage with power gating = 0.024925 W
            Gate Leakage = 0.00489731 W
            Runtime Dynamic = 0.289416 W

          Free List:
            Area = 7.5975 mm^2
            Peak Dynamic = 7.41375 W
            Subthreshold Leakage = 0.0190978 W
            Subthreshold Leakage with power gating = 0.00884518 W
            Gate Leakage = 0.00102434 W
            Runtime Dynamic = 0.0426348 W

      Load Store Unit:
        Area = 9.47562 mm^2
        Peak Dynamic = 2.74047 W
        Subthreshold Leakage = 0.886727 W
        Subthreshold Leakage with power gating = 0.394071 W
        Gate Leakage = 0.0841218 W
        Runtime Dynamic = 0.588334 W

          Data Cache:
            Area = 6.84535 mm^2
            Peak Dynamic = 2.08966 W
            Subthreshold Leakage = 0.527675 W
            Subthreshold Leakage with power gating = 0.25085 W
            Gate Leakage = 0.0279261 W
            Runtime Dynamic = 0.424728 W

          LoadQ:
            Area = 0.0836782 mm^2
            Peak Dynamic = 0.0275816 W
            Subthreshold Leakage = 0.00941961 W
            Subthreshold Leakage with power gating = 0.00536918 W
            Gate Leakage = 0.00059896 W
            Runtime Dynamic = 0.0275815 W

          StoreQ:
            Area = 0.322079 mm^2
            Peak Dynamic = 0.0680115 W
            Subthreshold Leakage = 0.0345621 W
            Subthreshold Leakage with power gating = 0.0197004 W
            Gate Leakage = 0.00329971 W
            Runtime Dynamic = 0.136023 W

      Memory Management Unit:
        Area = 1.10051 mm^2
        Peak Dynamic = 2.87362 W
        Subthreshold Leakage = 0.372016 W
        Subthreshold Leakage with power gating = 0.150611 W
        Gate Leakage = 0.057119 W
        Runtime Dynamic = 0.0477146 W

          Itlb:
            Area = 0.301552 mm^2
            Peak Dynamic = 0.0706547 W
            Subthreshold Leakage = 0.0413758 W
            Subthreshold Leakage with power gating = 0.0235842 W
            Gate Leakage = 0.00393464 W
            Runtime Dynamic = 0.0224681 W

          Dtlb:
            Area = 0.0879726 mm^2
            Peak Dynamic = 0.0241375 W
            Subthreshold Leakage = 0.0155699 W
            Subthreshold Leakage with power gating = 0.00887485 W
            Gate Leakage = 0.00088729 W
            Runtime Dynamic = 0.0252448 W

      Execution Unit:
        Area = 1686.67 mm^2
        Peak Dynamic = 202644 W
        Subthreshold Leakage = 70.0229 W
        Subthreshold Leakage with power gating = 29.962 W
        Gate Leakage = 5.03755 W
        Runtime Dynamic = 664.974 W

          Register Files:
            Area = 111.819 mm^2
            Peak Dynamic = 1.32077 W
            Subthreshold Leakage = 1.55192 W
            Subthreshold Leakage with power gating = 0.587195 W
            Gate Leakage = 0.101689 W
            Runtime Dynamic = 0.278575 W

              Integer RF:
                Area = 74.0344 mm^2
                Peak Dynamic = 0.656392 W
                Subthreshold Leakage = 1.06477 W
                Subthreshold Leakage with power gating = 0.401522 W
                Gate Leakage = 0.0700135 W
                Runtime Dynamic = 0.24902 W

              Floating Point RF:
                Area = 37.7848 mm^2
                Peak Dynamic = 0.664383 W
                Subthreshold Leakage = 0.487147 W
                Subthreshold Leakage with power gating = 0.185673 W
                Gate Leakage = 0.0316755 W
                Runtime Dynamic = 0.0295554 W

          Instruction Scheduler:
            Area = 1561.2 mm^2
            Peak Dynamic = 202642 W
            Subthreshold Leakage = 59.5387 W
            Subthreshold Leakage with power gating = 26.0252 W
            Gate Leakage = 4.31521 W
            Runtime Dynamic = 661.968 W

              Instruction Window:
                Area = 242.241 mm^2
                Peak Dynamic = 491.03 W
                Subthreshold Leakage = 18.7871 W
                Subthreshold Leakage with power gating = 10.7075 W
                Gate Leakage = 1.23925 W
                Runtime Dynamic = 1.75096 W

              FP Instruction Window:
                Area = 0.328073 mm^2
                Peak Dynamic = 2.30959 W
                Subthreshold Leakage = 0.0225127 W
                Subthreshold Leakage with power gating = 0.0116864 W
                Gate Leakage = 0.00181534 W
                Runtime Dynamic = 0.117884 W

              ROB:
                Area = 1318.63 mm^2
                Peak Dynamic = 202149 W
                Subthreshold Leakage = 40.7291 W
                Subthreshold Leakage with power gating = 15.306 W
                Gate Leakage = 3.07414 W
                Runtime Dynamic = 660.099 W

          Integer ALUs (Count: 96 ):
            Area = 7.53393 mm^2
            Peak Dynamic = 0.0629698 W
            Subthreshold Leakage = 6.43552 W
            Subthreshold Leakage with power gating = 2.41332 W
            Gate Leakage = 0.424466 W
            Runtime Dynamic = 0.165195 W

          Floating Point Units (FPUs) (Count: 2 ):
            Area = 4.6585 mm^2
            Peak Dynamic = 0.0186868 W
            Subthreshold Leakage = 0.994829 W
            Subthreshold Leakage with power gating = 0.373061 W
            Gate Leakage = 0.0656156 W
            Runtime Dynamic = 0.312253 W

          Complex ALUs (Mul/Div) (Count: 1 ):
            Area = 0.235435 mm^2
            Peak Dynamic = 0.00332247 W
            Subthreshold Leakage = 0.20111 W
            Subthreshold Leakage with power gating = 0.0754163 W
            Gate Leakage = 0.0132646 W
            Runtime Dynamic = 0.205298 W

          Results Broadcast Bus:
            Area Overhead = 0.510923 mm^2
            Peak Dynamic = 0.12077 W
            Subthreshold Leakage = 0.985661 W
            Subthreshold Leakage with power gating = 0.369623 W
            Gate Leakage = 0.0650109 W
            Runtime Dynamic = 2.04473 W

*****************************************************************************************
Core:
      Area = 1776.72 mm^2
      Peak Dynamic = 209258 W
      Subthreshold Leakage = 76.417 W
      Subthreshold Leakage with power gating = 32.6025 W
      Gate Leakage = 5.63287 W
      Runtime Dynamic = 539.987 W

      Instruction Fetch Unit:
        Area = 47.2731 mm^2
        Peak Dynamic = 4052.27 W
        Subthreshold Leakage = 2.37932 W
        Subthreshold Leakage with power gating = 0.95452 W
        Gate Leakage = 0.23961 W
        Runtime Dynamic = 6.16968 W

          Instruction Cache:
            Area = 4.86613 mm^2
            Peak Dynamic = 1.28862 W
            Subthreshold Leakage = 0.486629 W
            Subthreshold Leakage with power gating = 0.22691 W
            Gate Leakage = 0.0421203 W
            Runtime Dynamic = 0.21595 W

          Branch Target Buffer:
            Area = 0.64954 mm^2
            Peak Dynamic = 0.177867 W
            Subthreshold Leakage = 0.0811682 W
            Subthreshold Leakage with power gating = 0.0435357 W
            Gate Leakage = 0.00272758 W
            Runtime Dynamic = 0.00396495 W

          Branch Predictor:
            Area = 0.138516 mm^2
            Peak Dynamic = 0.0597838 W
            Subthreshold Leakage = 0.0199703 W
            Subthreshold Leakage with power gating = 0.0103282 W
            Gate Leakage = 0.000757657 W
            Runtime Dynamic = 0.00137073 W

              Global Predictor:
                Area = 0.0435221 mm^2
                Peak Dynamic = 0.0168831 W
                Subthreshold Leakage = 0.00759719 W
                Subthreshold Leakage with power gating = 0.0039236 W
                Gate Leakage = 0.000278362 W
                Runtime Dynamic = 0.000404284 W

              Local Predictor:
              L1_Local Predictor:
                Area = 0.0257064 mm^2
                Peak Dynamic = 0.0142575 W
                Subthreshold Leakage = 0.00384344 W
                Subthreshold Leakage with power gating = 0.00198631 W
                Gate Leakage = 0.000154548 W
                Runtime Dynamic = 0.000349647 W

              L2_Local Predictor:
                Area = 0.0151917 mm^2
                Peak Dynamic = 0.00527447 W
                Subthreshold Leakage = 0.00181347 W
                Subthreshold Leakage with power gating = 0.000957045 W
                Gate Leakage = 8.00196e-05 W
                Runtime Dynamic = 0.000133996 W

              Chooser:
                Area = 0.0435221 mm^2
                Peak Dynamic = 0.0168831 W
                Subthreshold Leakage = 0.00759719 W
                Subthreshold Leakage with power gating = 0.0039236 W
                Gate Leakage = 0.000278362 W
                Runtime Dynamic = 0.000404284 W

              RAS:
                Area = 0.0105732 mm^2
                Peak Dynamic = 0.0117602 W
                Subthreshold Leakage = 0.000932505 W
                Subthreshold Leakage with power gating = 0.000494733 W
                Gate Leakage = 4.63858e-05 W
                Runtime Dynamic = 0.000212512 W

          Instruction Buffer:
            Area = 11.1802 mm^2
            Peak Dynamic = 4028.05 W
            Subthreshold Leakage = 1.03354 W
            Subthreshold Leakage with power gating = 0.389491 W
            Gate Leakage = 0.119458 W
            Runtime Dynamic = 5.90009 W

          Instruction Decoder:
            Area = 29.7278 mm^2
            Peak Dynamic = 21.9846 W
            Subthreshold Leakage = 0.442943 W
            Subthreshold Leakage with power gating = 0.166104 W
            Gate Leakage = 0.0222493 W
            Runtime Dynamic = 0.0483029 W

      Renaming Unit:
        Area = 27.8071 mm^2
        Peak Dynamic = 2556.62 W
        Subthreshold Leakage = 0.87819 W
        Subthreshold Leakage with power gating = 0.437089 W
        Gate Leakage = 0.0906085 W
        Runtime Dynamic = 5.72983 W

          Int Front End RAT:
            Area = 19.3301 mm^2
            Peak Dynamic = 2465.83 W
            Subthreshold Leakage = 0.500294 W
            Subthreshold Leakage with power gating = 0.285168 W
            Gate Leakage = 0.0323898 W
            Runtime Dynamic = 5.40612 W

          FP Front End RAT:
            Area = 0.168486 mm^2
            Peak Dynamic = 78.3725 W
            Subthreshold Leakage = 0.0437281 W
            Subthreshold Leakage with power gating = 0.024925 W
            Gate Leakage = 0.00489731 W
            Runtime Dynamic = 0.289416 W

          Free List:
            Area = 7.5975 mm^2
            Peak Dynamic = 7.41375 W
            Subthreshold Leakage = 0.0190978 W
            Subthreshold Leakage with power gating = 0.00884518 W
            Gate Leakage = 0.00102434 W
            Runtime Dynamic = 0.0342889 W

      Load Store Unit:
        Area = 9.47562 mm^2
        Peak Dynamic = 2.44775 W
        Subthreshold Leakage = 0.886727 W
        Subthreshold Leakage with power gating = 0.394071 W
        Gate Leakage = 0.0841218 W
        Runtime Dynamic = 0.475694 W

          Data Cache:
            Area = 6.84535 mm^2
            Peak Dynamic = 1.92366 W
            Subthreshold Leakage = 0.527675 W
            Subthreshold Leakage with power gating = 0.25085 W
            Gate Leakage = 0.0279261 W
            Runtime Dynamic = 0.343944 W

          LoadQ:
            Area = 0.0836782 mm^2
            Peak Dynamic = 0.0222112 W
            Subthreshold Leakage = 0.00941961 W
            Subthreshold Leakage with power gating = 0.00536918 W
            Gate Leakage = 0.00059896 W
            Runtime Dynamic = 0.022211 W

          StoreQ:
            Area = 0.322079 mm^2
            Peak Dynamic = 0.0547689 W
            Subthreshold Leakage = 0.0345621 W
            Subthreshold Leakage with power gating = 0.0197004 W
            Gate Leakage = 0.00329971 W
            Runtime Dynamic = 0.109537 W

      Memory Management Unit:
        Area = 1.10051 mm^2
        Peak Dynamic = 2.80046 W
        Subthreshold Leakage = 0.372016 W
        Subthreshold Leakage with power gating = 0.150611 W
        Gate Leakage = 0.057119 W
        Runtime Dynamic = 0.037033 W

          Itlb:
            Area = 0.301552 mm^2
            Peak Dynamic = 0.0562456 W
            Subthreshold Leakage = 0.0413758 W
            Subthreshold Leakage with power gating = 0.0235842 W
            Gate Leakage = 0.00393464 W
            Runtime Dynamic = 0.0167061 W

          Dtlb:
            Area = 0.0879726 mm^2
            Peak Dynamic = 0.0194377 W
            Subthreshold Leakage = 0.0155699 W
            Subthreshold Leakage with power gating = 0.00887485 W
            Gate Leakage = 0.00088729 W
            Runtime Dynamic = 0.0203252 W

      Execution Unit:
        Area = 1686.67 mm^2
        Peak Dynamic = 202644 W
        Subthreshold Leakage = 70.0229 W
        Subthreshold Leakage with power gating = 29.962 W
        Gate Leakage = 5.03755 W
        Runtime Dynamic = 527.575 W

          Register Files:
            Area = 111.819 mm^2
            Peak Dynamic = 1.27115 W
            Subthreshold Leakage = 1.55192 W
            Subthreshold Leakage with power gating = 0.587195 W
            Gate Leakage = 0.101689 W
            Runtime Dynamic = 0.221763 W

              Integer RF:
                Area = 74.0344 mm^2
                Peak Dynamic = 0.606769 W
                Subthreshold Leakage = 1.06477 W
                Subthreshold Leakage with power gating = 0.401522 W
                Gate Leakage = 0.0700135 W
                Runtime Dynamic = 0.198235 W

              Floating Point RF:
                Area = 37.7848 mm^2
                Peak Dynamic = 0.664383 W
                Subthreshold Leakage = 0.487147 W
                Subthreshold Leakage with power gating = 0.185673 W
                Gate Leakage = 0.0316755 W
                Runtime Dynamic = 0.0235278 W

          Instruction Scheduler:
            Area = 1561.2 mm^2
            Peak Dynamic = 202642 W
            Subthreshold Leakage = 59.5387 W
            Subthreshold Leakage with power gating = 26.0252 W
            Gate Leakage = 4.31521 W
            Runtime Dynamic = 525.05 W

              Instruction Window:
                Area = 242.241 mm^2
                Peak Dynamic = 491.03 W
                Subthreshold Leakage = 18.7871 W
                Subthreshold Leakage with power gating = 10.7075 W
                Gate Leakage = 1.23925 W
                Runtime Dynamic = 1.39387 W

              FP Instruction Window:
                Area = 0.328073 mm^2
                Peak Dynamic = 2.30959 W
                Subthreshold Leakage = 0.0225127 W
                Subthreshold Leakage with power gating = 0.0116864 W
                Gate Leakage = 0.00181534 W
                Runtime Dynamic = 0.0938432 W

              ROB:
                Area = 1318.63 mm^2
                Peak Dynamic = 202149 W
                Subthreshold Leakage = 40.7291 W
                Subthreshold Leakage with power gating = 15.306 W
                Gate Leakage = 3.07414 W
                Runtime Dynamic = 523.562 W

          Integer ALUs (Count: 96 ):
            Area = 7.53393 mm^2
            Peak Dynamic = 0.0495758 W
            Subthreshold Leakage = 6.43552 W
            Subthreshold Leakage with power gating = 2.41332 W
            Gate Leakage = 0.424466 W
            Runtime Dynamic = 0.151831 W

          Floating Point Units (FPUs) (Count: 2 ):
            Area = 4.6585 mm^2
            Peak Dynamic = 0.0186868 W
            Subthreshold Leakage = 0.994829 W
            Subthreshold Leakage with power gating = 0.373061 W
            Gate Leakage = 0.0656156 W
            Runtime Dynamic = 0.312253 W

          Complex ALUs (Mul/Div) (Count: 1 ):
            Area = 0.235435 mm^2
            Peak Dynamic = 0.00332247 W
            Subthreshold Leakage = 0.20111 W
            Subthreshold Leakage with power gating = 0.0754163 W
            Gate Leakage = 0.0132646 W
            Runtime Dynamic = 0.205298 W

          Results Broadcast Bus:
            Area Overhead = 0.510923 mm^2
            Peak Dynamic = 0.112223 W
            Subthreshold Leakage = 0.985661 W
            Subthreshold Leakage with power gating = 0.369623 W
            Gate Leakage = 0.0650109 W
            Runtime Dynamic = 1.63423 W

*****************************************************************************************
Core:
      Area = 1776.72 mm^2
      Peak Dynamic = 209259 W
      Subthreshold Leakage = 76.417 W
      Subthreshold Leakage with power gating = 32.6025 W
      Gate Leakage = 5.63287 W
      Runtime Dynamic = 644.906 W

      Instruction Fetch Unit:
        Area = 47.2731 mm^2
        Peak Dynamic = 4052.65 W
        Subthreshold Leakage = 2.37932 W
        Subthreshold Leakage with power gating = 0.95452 W
        Gate Leakage = 0.23961 W
        Runtime Dynamic = 7.3644 W

          Instruction Cache:
            Area = 4.86613 mm^2
            Peak Dynamic = 1.53511 W
            Subthreshold Leakage = 0.486629 W
            Subthreshold Leakage with power gating = 0.22691 W
            Gate Leakage = 0.0421203 W
            Runtime Dynamic = 0.271581 W

          Branch Target Buffer:
            Area = 0.64954 mm^2
            Peak Dynamic = 0.177867 W
            Subthreshold Leakage = 0.0811682 W
            Subthreshold Leakage with power gating = 0.0435357 W
            Gate Leakage = 0.00272758 W
            Runtime Dynamic = 0.00492185 W

          Branch Predictor:
            Area = 0.138516 mm^2
            Peak Dynamic = 0.0597838 W
            Subthreshold Leakage = 0.0199703 W
            Subthreshold Leakage with power gating = 0.0103282 W
            Gate Leakage = 0.000757657 W
            Runtime Dynamic = 0.00168992 W

              Global Predictor:
                Area = 0.0435221 mm^2
                Peak Dynamic = 0.0168831 W
                Subthreshold Leakage = 0.00759719 W
                Subthreshold Leakage with power gating = 0.0039236 W
                Gate Leakage = 0.000278362 W
                Runtime Dynamic = 0.000501543 W

              Local Predictor:
              L1_Local Predictor:
                Area = 0.0257064 mm^2
                Peak Dynamic = 0.0142575 W
                Subthreshold Leakage = 0.00384344 W
                Subthreshold Leakage with power gating = 0.00198631 W
                Gate Leakage = 0.000154548 W
                Runtime Dynamic = 0.000433678 W

              L2_Local Predictor:
                Area = 0.0151917 mm^2
                Peak Dynamic = 0.00527447 W
                Subthreshold Leakage = 0.00181347 W
                Subthreshold Leakage with power gating = 0.000957045 W
                Gate Leakage = 8.00196e-05 W
                Runtime Dynamic = 0.000166152 W

              Chooser:
                Area = 0.0435221 mm^2
                Peak Dynamic = 0.0168831 W
                Subthreshold Leakage = 0.00759719 W
                Subthreshold Leakage with power gating = 0.0039236 W
                Gate Leakage = 0.000278362 W
                Runtime Dynamic = 0.000501543 W

              RAS:
                Area = 0.0105732 mm^2
                Peak Dynamic = 0.0117602 W
                Subthreshold Leakage = 0.000932505 W
                Subthreshold Leakage with power gating = 0.000494733 W
                Gate Leakage = 4.63858e-05 W
                Runtime Dynamic = 0.000253153 W

          Instruction Buffer:
            Area = 11.1802 mm^2
            Peak Dynamic = 4028.05 W
            Subthreshold Leakage = 1.03354 W
            Subthreshold Leakage with power gating = 0.389491 W
            Gate Leakage = 0.119458 W
            Runtime Dynamic = 7.02866 W

          Instruction Decoder:
            Area = 29.7278 mm^2
            Peak Dynamic = 21.9846 W
            Subthreshold Leakage = 0.442943 W
            Subthreshold Leakage with power gating = 0.166104 W
            Gate Leakage = 0.0222493 W
            Runtime Dynamic = 0.0575423 W

      Renaming Unit:
        Area = 27.8071 mm^2
        Peak Dynamic = 2556.62 W
        Subthreshold Leakage = 0.87819 W
        Subthreshold Leakage with power gating = 0.437089 W
        Gate Leakage = 0.0906085 W
        Runtime Dynamic = 6.77027 W

          Int Front End RAT:
            Area = 19.3301 mm^2
            Peak Dynamic = 2465.83 W
            Subthreshold Leakage = 0.500294 W
            Subthreshold Leakage with power gating = 0.285168 W
            Gate Leakage = 0.0323898 W
            Runtime Dynamic = 6.44033 W

          FP Front End RAT:
            Area = 0.168486 mm^2
            Peak Dynamic = 78.3725 W
            Subthreshold Leakage = 0.0437281 W
            Subthreshold Leakage with power gating = 0.024925 W
            Gate Leakage = 0.00489731 W
            Runtime Dynamic = 0.289416 W

          Free List:
            Area = 7.5975 mm^2
            Peak Dynamic = 7.41375 W
            Subthreshold Leakage = 0.0190978 W
            Subthreshold Leakage with power gating = 0.00884518 W
            Gate Leakage = 0.00102434 W
            Runtime Dynamic = 0.0405205 W

      Load Store Unit:
        Area = 9.47562 mm^2
        Peak Dynamic = 2.66633 W
        Subthreshold Leakage = 0.886727 W
        Subthreshold Leakage with power gating = 0.394071 W
        Gate Leakage = 0.0841218 W
        Runtime Dynamic = 0.561601 W

          Data Cache:
            Area = 6.84535 mm^2
            Peak Dynamic = 2.04761 W
            Subthreshold Leakage = 0.527675 W
            Subthreshold Leakage with power gating = 0.25085 W
            Gate Leakage = 0.0279261 W
            Runtime Dynamic = 0.406063 W

          LoadQ:
            Area = 0.0836782 mm^2
            Peak Dynamic = 0.0262213 W
            Subthreshold Leakage = 0.00941961 W
            Subthreshold Leakage with power gating = 0.00536918 W
            Gate Leakage = 0.00059896 W
            Runtime Dynamic = 0.0262213 W

          StoreQ:
            Area = 0.322079 mm^2
            Peak Dynamic = 0.0646572 W
            Subthreshold Leakage = 0.0345621 W
            Subthreshold Leakage with power gating = 0.0197004 W
            Gate Leakage = 0.00329971 W
            Runtime Dynamic = 0.129315 W

      Memory Management Unit:
        Area = 1.10051 mm^2
        Peak Dynamic = 2.85509 W
        Subthreshold Leakage = 0.372016 W
        Subthreshold Leakage with power gating = 0.150611 W
        Gate Leakage = 0.057119 W
        Runtime Dynamic = 0.0450749 W

          Itlb:
            Area = 0.301552 mm^2
            Peak Dynamic = 0.0670043 W
            Subthreshold Leakage = 0.0413758 W
            Subthreshold Leakage with power gating = 0.0235842 W
            Gate Leakage = 0.00393464 W
            Runtime Dynamic = 0.0210095 W

          Dtlb:
            Area = 0.0879726 mm^2
            Peak Dynamic = 0.0229471 W
            Subthreshold Leakage = 0.0155699 W
            Subthreshold Leakage with power gating = 0.00887485 W
            Gate Leakage = 0.00088729 W
            Runtime Dynamic = 0.0240636 W

      Execution Unit:
        Area = 1686.67 mm^2
        Peak Dynamic = 202644 W
        Subthreshold Leakage = 70.0229 W
        Subthreshold Leakage with power gating = 29.962 W
        Gate Leakage = 5.03755 W
        Runtime Dynamic = 630.165 W

          Register Files:
            Area = 111.819 mm^2
            Peak Dynamic = 1.3082 W
            Subthreshold Leakage = 1.55192 W
            Subthreshold Leakage with power gating = 0.587195 W
            Gate Leakage = 0.101689 W
            Runtime Dynamic = 0.264182 W

              Integer RF:
                Area = 74.0344 mm^2
                Peak Dynamic = 0.643821 W
                Subthreshold Leakage = 1.06477 W
                Subthreshold Leakage with power gating = 0.401522 W
                Gate Leakage = 0.0700135 W
                Runtime Dynamic = 0.236154 W

              Floating Point RF:
                Area = 37.7848 mm^2
                Peak Dynamic = 0.664383 W
                Subthreshold Leakage = 0.487147 W
                Subthreshold Leakage with power gating = 0.185673 W
                Gate Leakage = 0.0316755 W
                Runtime Dynamic = 0.0280282 W

          Instruction Scheduler:
            Area = 1561.2 mm^2
            Peak Dynamic = 202642 W
            Subthreshold Leakage = 59.5387 W
            Subthreshold Leakage with power gating = 26.0252 W
            Gate Leakage = 4.31521 W
            Runtime Dynamic = 627.281 W

              Instruction Window:
                Area = 242.241 mm^2
                Peak Dynamic = 491.03 W
                Subthreshold Leakage = 18.7871 W
                Subthreshold Leakage with power gating = 10.7075 W
                Gate Leakage = 1.23925 W
                Runtime Dynamic = 1.66049 W

              FP Instruction Window:
                Area = 0.328073 mm^2
                Peak Dynamic = 2.30959 W
                Subthreshold Leakage = 0.0225127 W
                Subthreshold Leakage with power gating = 0.0116864 W
                Gate Leakage = 0.00181534 W
                Runtime Dynamic = 0.111794 W

              ROB:
                Area = 1318.63 mm^2
                Peak Dynamic = 202149 W
                Subthreshold Leakage = 40.7291 W
                Subthreshold Leakage with power gating = 15.306 W
                Gate Leakage = 3.07414 W
                Runtime Dynamic = 625.508 W

          Integer ALUs (Count: 96 ):
            Area = 7.53393 mm^2
            Peak Dynamic = 0.0595766 W
            Subthreshold Leakage = 6.43552 W
            Subthreshold Leakage with power gating = 2.41332 W
            Gate Leakage = 0.424466 W
            Runtime Dynamic = 0.161809 W

          Floating Point Units (FPUs) (Count: 2 ):
            Area = 4.6585 mm^2
            Peak Dynamic = 0.0186868 W
            Subthreshold Leakage = 0.994829 W
            Subthreshold Leakage with power gating = 0.373061 W
            Gate Leakage = 0.0656156 W
            Runtime Dynamic = 0.312253 W

          Complex ALUs (Mul/Div) (Count: 1 ):
            Area = 0.235435 mm^2
            Peak Dynamic = 0.00332247 W
            Subthreshold Leakage = 0.20111 W
            Subthreshold Leakage with power gating = 0.0754163 W
            Gate Leakage = 0.0132646 W
            Runtime Dynamic = 0.205298 W

          Results Broadcast Bus:
            Area Overhead = 0.510923 mm^2
            Peak Dynamic = 0.118605 W
            Subthreshold Leakage = 0.985661 W
            Subthreshold Leakage with power gating = 0.369623 W
            Gate Leakage = 0.0650109 W
            Runtime Dynamic = 1.94072 W

*****************************************************************************************
Core:
      Area = 1776.72 mm^2
      Peak Dynamic = 209259 W
      Subthreshold Leakage = 76.417 W
      Subthreshold Leakage with power gating = 32.6025 W
      Gate Leakage = 5.63287 W
      Runtime Dynamic = 623.072 W

      Instruction Fetch Unit:
        Area = 47.2731 mm^2
        Peak Dynamic = 4052.57 W
        Subthreshold Leakage = 2.37932 W
        Subthreshold Leakage with power gating = 0.95452 W
        Gate Leakage = 0.23961 W
        Runtime Dynamic = 7.11578 W

          Instruction Cache:
            Area = 4.86613 mm^2
            Peak Dynamic = 1.48382 W
            Subthreshold Leakage = 0.486629 W
            Subthreshold Leakage with power gating = 0.22691 W
            Gate Leakage = 0.0421203 W
            Runtime Dynamic = 0.260003 W

          Branch Target Buffer:
            Area = 0.64954 mm^2
            Peak Dynamic = 0.177867 W
            Subthreshold Leakage = 0.0811682 W
            Subthreshold Leakage with power gating = 0.0435357 W
            Gate Leakage = 0.00272758 W
            Runtime Dynamic = 0.00472274 W

          Branch Predictor:
            Area = 0.138516 mm^2
            Peak Dynamic = 0.0597838 W
            Subthreshold Leakage = 0.0199703 W
            Subthreshold Leakage with power gating = 0.0103282 W
            Gate Leakage = 0.000757657 W
            Runtime Dynamic = 0.00162351 W

              Global Predictor:
                Area = 0.0435221 mm^2
                Peak Dynamic = 0.0168831 W
                Subthreshold Leakage = 0.00759719 W
                Subthreshold Leakage with power gating = 0.0039236 W
                Gate Leakage = 0.000278362 W
                Runtime Dynamic = 0.000481307 W

              Local Predictor:
              L1_Local Predictor:
                Area = 0.0257064 mm^2
                Peak Dynamic = 0.0142575 W
                Subthreshold Leakage = 0.00384344 W
                Subthreshold Leakage with power gating = 0.00198631 W
                Gate Leakage = 0.000154548 W
                Runtime Dynamic = 0.000416195 W

              L2_Local Predictor:
                Area = 0.0151917 mm^2
                Peak Dynamic = 0.00527447 W
                Subthreshold Leakage = 0.00181347 W
                Subthreshold Leakage with power gating = 0.000957045 W
                Gate Leakage = 8.00196e-05 W
                Runtime Dynamic = 0.000159462 W

              Chooser:
                Area = 0.0435221 mm^2
                Peak Dynamic = 0.0168831 W
                Subthreshold Leakage = 0.00759719 W
                Subthreshold Leakage with power gating = 0.0039236 W
                Gate Leakage = 0.000278362 W
                Runtime Dynamic = 0.000481307 W

              RAS:
                Area = 0.0105732 mm^2
                Peak Dynamic = 0.0117602 W
                Subthreshold Leakage = 0.000932505 W
                Subthreshold Leakage with power gating = 0.000494733 W
                Gate Leakage = 4.63858e-05 W
                Runtime Dynamic = 0.000244701 W

          Instruction Buffer:
            Area = 11.1802 mm^2
            Peak Dynamic = 4028.05 W
            Subthreshold Leakage = 1.03354 W
            Subthreshold Leakage with power gating = 0.389491 W
            Gate Leakage = 0.119458 W
            Runtime Dynamic = 6.79381 W

          Instruction Decoder:
            Area = 29.7278 mm^2
            Peak Dynamic = 21.9846 W
            Subthreshold Leakage = 0.442943 W
            Subthreshold Leakage with power gating = 0.166104 W
            Gate Leakage = 0.0222493 W
            Runtime Dynamic = 0.0556196 W

      Renaming Unit:
        Area = 27.8071 mm^2
        Peak Dynamic = 2556.62 W
        Subthreshold Leakage = 0.87819 W
        Subthreshold Leakage with power gating = 0.437089 W
        Gate Leakage = 0.0906085 W
        Runtime Dynamic = 6.55375 W

          Int Front End RAT:
            Area = 19.3301 mm^2
            Peak Dynamic = 2465.83 W
            Subthreshold Leakage = 0.500294 W
            Subthreshold Leakage with power gating = 0.285168 W
            Gate Leakage = 0.0323898 W
            Runtime Dynamic = 6.22511 W

          FP Front End RAT:
            Area = 0.168486 mm^2
            Peak Dynamic = 78.3725 W
            Subthreshold Leakage = 0.0437281 W
            Subthreshold Leakage with power gating = 0.024925 W
            Gate Leakage = 0.00489731 W
            Runtime Dynamic = 0.289416 W

          Free List:
            Area = 7.5975 mm^2
            Peak Dynamic = 7.41375 W
            Subthreshold Leakage = 0.0190978 W
            Subthreshold Leakage with power gating = 0.00884518 W
            Gate Leakage = 0.00102434 W
            Runtime Dynamic = 0.0392237 W

      Load Store Unit:
        Area = 9.47562 mm^2
        Peak Dynamic = 2.62084 W
        Subthreshold Leakage = 0.886727 W
        Subthreshold Leakage with power gating = 0.394071 W
        Gate Leakage = 0.0841218 W
        Runtime Dynamic = 0.543168 W

          Data Cache:
            Area = 6.84535 mm^2
            Peak Dynamic = 2.02182 W
            Subthreshold Leakage = 0.527675 W
            Subthreshold Leakage with power gating = 0.25085 W
            Gate Leakage = 0.0279261 W
            Runtime Dynamic = 0.392581 W

          LoadQ:
            Area = 0.0836782 mm^2
            Peak Dynamic = 0.0253868 W
            Subthreshold Leakage = 0.00941961 W
            Subthreshold Leakage with power gating = 0.00536918 W
            Gate Leakage = 0.00059896 W
            Runtime Dynamic = 0.0253868 W

          StoreQ:
            Area = 0.322079 mm^2
            Peak Dynamic = 0.0625995 W
            Subthreshold Leakage = 0.0345621 W
            Subthreshold Leakage with power gating = 0.0197004 W
            Gate Leakage = 0.00329971 W
            Runtime Dynamic = 0.125199 W

      Memory Management Unit:
        Area = 1.10051 mm^2
        Peak Dynamic = 2.84372 W
        Subthreshold Leakage = 0.372016 W
        Subthreshold Leakage with power gating = 0.150611 W
        Gate Leakage = 0.057119 W
        Runtime Dynamic = 0.0433656 W

          Itlb:
            Area = 0.301552 mm^2
            Peak Dynamic = 0.0647655 W
            Subthreshold Leakage = 0.0413758 W
            Subthreshold Leakage with power gating = 0.0235842 W
            Gate Leakage = 0.00393464 W
            Runtime Dynamic = 0.0201139 W

          Dtlb:
            Area = 0.0879726 mm^2
            Peak Dynamic = 0.0222168 W
            Subthreshold Leakage = 0.0155699 W
            Subthreshold Leakage with power gating = 0.00887485 W
            Gate Leakage = 0.00088729 W
            Runtime Dynamic = 0.0232499 W

      Execution Unit:
        Area = 1686.67 mm^2
        Peak Dynamic = 202644 W
        Subthreshold Leakage = 70.0229 W
        Subthreshold Leakage with power gating = 29.962 W
        Gate Leakage = 5.03755 W
        Runtime Dynamic = 608.816 W

          Register Files:
            Area = 111.819 mm^2
            Peak Dynamic = 1.30053 W
            Subthreshold Leakage = 1.55192 W
            Subthreshold Leakage with power gating = 0.587195 W
            Gate Leakage = 0.101689 W
            Runtime Dynamic = 0.255355 W

              Integer RF:
                Area = 74.0344 mm^2
                Peak Dynamic = 0.636146 W
                Subthreshold Leakage = 1.06477 W
                Subthreshold Leakage with power gating = 0.401522 W
                Gate Leakage = 0.0700135 W
                Runtime Dynamic = 0.228263 W

              Floating Point RF:
                Area = 37.7848 mm^2
                Peak Dynamic = 0.664383 W
                Subthreshold Leakage = 0.487147 W
                Subthreshold Leakage with power gating = 0.185673 W
                Gate Leakage = 0.0316755 W
                Runtime Dynamic = 0.0270919 W

          Instruction Scheduler:
            Area = 1561.2 mm^2
            Peak Dynamic = 202642 W
            Subthreshold Leakage = 59.5387 W
            Subthreshold Leakage with power gating = 26.0252 W
            Gate Leakage = 4.31521 W
            Runtime Dynamic = 606.006 W

              Instruction Window:
                Area = 242.241 mm^2
                Peak Dynamic = 491.03 W
                Subthreshold Leakage = 18.7871 W
                Subthreshold Leakage with power gating = 10.7075 W
                Gate Leakage = 1.23925 W
                Runtime Dynamic = 1.60501 W

              FP Instruction Window:
                Area = 0.328073 mm^2
                Peak Dynamic = 2.30959 W
                Subthreshold Leakage = 0.0225127 W
                Subthreshold Leakage with power gating = 0.0116864 W
                Gate Leakage = 0.00181534 W
                Runtime Dynamic = 0.108058 W

              ROB:
                Area = 1318.63 mm^2
                Peak Dynamic = 202149 W
                Subthreshold Leakage = 40.7291 W
                Subthreshold Leakage with power gating = 15.306 W
                Gate Leakage = 3.07414 W
                Runtime Dynamic = 604.293 W

          Integer ALUs (Count: 96 ):
            Area = 7.53393 mm^2
            Peak Dynamic = 0.057505 W
            Subthreshold Leakage = 6.43552 W
            Subthreshold Leakage with power gating = 2.41332 W
            Gate Leakage = 0.424466 W
            Runtime Dynamic = 0.159732 W

          Floating Point Units (FPUs) (Count: 2 ):
            Area = 4.6585 mm^2
            Peak Dynamic = 0.0186868 W
            Subthreshold Leakage = 0.994829 W
            Subthreshold Leakage with power gating = 0.373061 W
            Gate Leakage = 0.0656156 W
            Runtime Dynamic = 0.312253 W

          Complex ALUs (Mul/Div) (Count: 1 ):
            Area = 0.235435 mm^2
            Peak Dynamic = 0.00332247 W
            Subthreshold Leakage = 0.20111 W
            Subthreshold Leakage with power gating = 0.0754163 W
            Gate Leakage = 0.0132646 W
            Runtime Dynamic = 0.205298 W

          Results Broadcast Bus:
            Area Overhead = 0.510923 mm^2
            Peak Dynamic = 0.117283 W
            Subthreshold Leakage = 0.985661 W
            Subthreshold Leakage with power gating = 0.369623 W
            Gate Leakage = 0.0650109 W
            Runtime Dynamic = 1.87694 W

*****************************************************************************************
L2
      Area = 22.2273 mm^2
      Peak Dynamic = 0.513189 W
      Subthreshold Leakage = 2.01996 W
      Subthreshold Leakage with power gating = 0.908099 W
      Gate Leakage = 0.0518439 W
      Runtime Dynamic = 0.181896 W

*****************************************************************************************
L2
      Area = 22.2273 mm^2
      Peak Dynamic = 0.498066 W
      Subthreshold Leakage = 2.01996 W
      Subthreshold Leakage with power gating = 0.908099 W
      Gate Leakage = 0.0518439 W
      Runtime Dynamic = 0.166969 W

*****************************************************************************************
L3
      Area = 61.9075 mm^2
      Peak Dynamic = 0.690003 W
      Subthreshold Leakage = 6.80085 W
      Subthreshold Leakage with power gating = 3.32364 W
      Gate Leakage = 0.0484137 W
      Runtime Dynamic = 0.431068 W

*****************************************************************************************
BUSES
      Area = 22.5992 mm^2
      Peak Dynamic = 0 W
      Subthreshold Leakage = 0.632215 W
      Subthreshold Leakage with power gating = 0.23708 W
      Gate Leakage = 0.0606272 W
      Runtime Dynamic = 0 W

      Bus: 
        Area = 22.5992 mm^2
        Peak Dynamic = 0 W
        Subthreshold Leakage = 0.632215 W
        Subthreshold Leakage with power gating = 0.23708 W
        Gate Leakage = 0.0606272 W
        Runtime Dynamic = 0 W

*****************************************************************************************
